notebook_tutorials/synthetic_net_opendss/master_sample_47.dss
clear
new circuit.synthetic_net basekv=157.6864406779661 pu=1.0 phases=3
edit Vsource.source bus1=bus_68.1.2.3

!---------------- LINES ----------------

new linecode.LCode_0 nphases=1 rmatrix=[0.999224] xmatrix=[1.242115] units=km
new line.line_0 bus1=bus_0.1 bus2=bus_1.1 linecode=LCode_0 length=1.0 units=km
new linecode.LCode_1 nphases=1 rmatrix=[0.668926] xmatrix=[1.331836] units=km
new line.line_1 bus1=bus_0.1 bus2=bus_2.1 linecode=LCode_1 length=1.0 units=km
new linecode.LCode_2 nphases=1 rmatrix=[0.475201] xmatrix=[1.242115] units=km
new line.line_2 bus1=bus_3.1 bus2=bus_4.1 linecode=LCode_2 length=1.0 units=km
new linecode.LCode_3 nphases=1 rmatrix=[1.061208] xmatrix=[1.242115] units=km
new line.line_3 bus1=bus_2.1 bus2=bus_4.1 linecode=LCode_3 length=1.0 units=km
new linecode.LCode_4 nphases=1 rmatrix=[0.510200] xmatrix=[1.281084] units=km
new line.line_4 bus1=bus_4.1 bus2=bus_5.1 linecode=LCode_4 length=1.0 units=km
new linecode.LCode_5 nphases=1 rmatrix=[0.794319] xmatrix=[1.408215] units=km
new line.line_5 bus1=bus_5.1 bus2=bus_6.1 linecode=LCode_5 length=1.0 units=km
new linecode.LCode_6 nphases=1 rmatrix=[1.038854] xmatrix=[1.242115] units=km
new line.line_6 bus1=bus_7.1 bus2=bus_8.1 linecode=LCode_6 length=1.0 units=km
new linecode.LCode_7 nphases=1 rmatrix=[0.942066] xmatrix=[1.242115] units=km
new line.line_7 bus1=bus_8.1 bus2=bus_9.1 linecode=LCode_7 length=1.0 units=km
new linecode.LCode_8 nphases=1 rmatrix=[0.743606] xmatrix=[1.326357] units=km
new line.line_8 bus1=bus_3.1 bus2=bus_10.1 linecode=LCode_8 length=1.0 units=km
new linecode.LCode_9 nphases=1 rmatrix=[0.860363] xmatrix=[1.493827] units=km
new line.line_9 bus1=bus_4.1 bus2=bus_10.1 linecode=LCode_9 length=1.0 units=km
new linecode.LCode_10 nphases=1 rmatrix=[0.910862] xmatrix=[1.706902] units=km
new line.line_10 bus1=bus_10.1 bus2=bus_11.1 linecode=LCode_10 length=1.0 units=km
new linecode.LCode_11 nphases=1 rmatrix=[0.820413] xmatrix=[1.242115] units=km
new line.line_11 bus1=bus_1.1 bus2=bus_11.1 linecode=LCode_11 length=1.0 units=km
new linecode.LCode_12 nphases=1 rmatrix=[1.389727] xmatrix=[1.242115] units=km
new line.line_12 bus1=bus_2.1 bus2=bus_11.1 linecode=LCode_12 length=1.0 units=km
new linecode.LCode_13 nphases=1 rmatrix=[0.762418] xmatrix=[1.504947] units=km
new line.line_13 bus1=bus_6.1 bus2=bus_11.1 linecode=LCode_13 length=1.0 units=km
new linecode.LCode_16 nphases=1 rmatrix=[0.394222] xmatrix=[1.317576] units=km
new line.line_16 bus1=bus_12.3 bus2=bus_14.3 linecode=LCode_16 length=1.0 units=km
new linecode.LCode_17 nphases=1 rmatrix=[0.175644] xmatrix=[1.344577] units=km
new line.line_17 bus1=bus_13.3 bus2=bus_14.3 linecode=LCode_17 length=1.0 units=km
new linecode.LCode_18 nphases=1 rmatrix=[0.885748] xmatrix=[1.330172] units=km
new line.line_18 bus1=bus_11.1 bus2=bus_15.1 linecode=LCode_18 length=1.0 units=km
new linecode.LCode_20 nphases=1 rmatrix=[0.668491] xmatrix=[1.242115] units=km
new line.line_20 bus1=bus_15.1 bus2=bus_16.1 linecode=LCode_20 length=1.0 units=km
new linecode.LCode_21 nphases=1 rmatrix=[0.618650] xmatrix=[1.562204] units=km
new line.line_21 bus1=bus_16.1 bus2=bus_17.1 linecode=LCode_21 length=1.0 units=km
new linecode.LCode_24 nphases=1 rmatrix=[0.910945] xmatrix=[1.242115] units=km
new line.line_24 bus1=bus_14.3 bus2=bus_18.3 linecode=LCode_24 length=1.0 units=km
new linecode.LCode_25 nphases=1 rmatrix=[0.779413] xmatrix=[1.312496] units=km
new line.line_25 bus1=bus_19.1 bus2=bus_20.1 linecode=LCode_25 length=1.0 units=km
new linecode.LCode_26 nphases=1 rmatrix=[0.982062] xmatrix=[1.387839] units=km
new line.line_26 bus1=bus_20.1 bus2=bus_21.1 linecode=LCode_26 length=1.0 units=km
new linecode.LCode_27 nphases=1 rmatrix=[0.608335] xmatrix=[1.242115] units=km
new line.line_27 bus1=bus_21.1 bus2=bus_22.1 linecode=LCode_27 length=1.0 units=km
new linecode.LCode_28 nphases=1 rmatrix=[1.237981] xmatrix=[1.437314] units=km
new line.line_28 bus1=bus_22.1 bus2=bus_23.1 linecode=LCode_28 length=1.0 units=km
new linecode.LCode_29 nphases=1 rmatrix=[1.212779] xmatrix=[1.260025] units=km
new line.line_29 bus1=bus_22.1 bus2=bus_24.1 linecode=LCode_29 length=1.0 units=km
new linecode.LCode_30 nphases=1 rmatrix=[0.883988] xmatrix=[1.275117] units=km
new line.line_30 bus1=bus_24.1 bus2=bus_26.1 linecode=LCode_30 length=1.0 units=km
new linecode.LCode_31 nphases=1 rmatrix=[0.980459] xmatrix=[1.242115] units=km
new line.line_31 bus1=bus_26.1 bus2=bus_27.1 linecode=LCode_31 length=1.0 units=km
new linecode.LCode_32 nphases=1 rmatrix=[0.813229] xmatrix=[1.288159] units=km
new line.line_32 bus1=bus_27.1 bus2=bus_28.1 linecode=LCode_32 length=1.0 units=km
new linecode.LCode_33 nphases=1 rmatrix=[0.630159] xmatrix=[1.242115] units=km
new line.line_33 bus1=bus_7.1 bus2=bus_29.1 linecode=LCode_33 length=1.0 units=km
new linecode.LCode_34 nphases=1 rmatrix=[0.726505] xmatrix=[1.564833] units=km
new line.line_34 bus1=bus_25.1 bus2=bus_29.1 linecode=LCode_34 length=1.0 units=km
new linecode.LCode_35 nphases=1 rmatrix=[0.737339] xmatrix=[1.270832] units=km
new line.line_35 bus1=bus_16.1 bus2=bus_30.1 linecode=LCode_35 length=1.0 units=km
new linecode.LCode_36 nphases=1 rmatrix=[0.978507] xmatrix=[1.242115] units=km
new line.line_36 bus1=bus_28.1 bus2=bus_30.1 linecode=LCode_36 length=1.0 units=km
new linecode.LCode_37 nphases=1 rmatrix=[0.282529] xmatrix=[1.392436] units=km
new line.line_37 bus1=bus_22.1 bus2=bus_31.1 linecode=LCode_37 length=1.0 units=km
new linecode.LCode_38 nphases=1 rmatrix=[0.438042] xmatrix=[1.380053] units=km
new line.line_38 bus1=bus_30.1 bus2=bus_31.1 linecode=LCode_38 length=1.0 units=km
new linecode.LCode_39 nphases=1 rmatrix=[0.691593] xmatrix=[1.242115] units=km
new line.line_39 bus1=bus_26.1 bus2=bus_31.1 linecode=LCode_39 length=1.0 units=km
new linecode.LCode_40 nphases=1 rmatrix=[0.782633] xmatrix=[1.242115] units=km
new line.line_40 bus1=bus_14.3 bus2=bus_32.3 linecode=LCode_40 length=1.0 units=km
new linecode.LCode_41 nphases=1 rmatrix=[0.778044] xmatrix=[1.476364] units=km
new line.line_41 bus1=bus_18.3 bus2=bus_33.3 linecode=LCode_41 length=1.0 units=km
new linecode.LCode_42 nphases=1 rmatrix=[0.473325] xmatrix=[1.315250] units=km
new line.line_42 bus1=bus_34.3 bus2=bus_35.3 linecode=LCode_42 length=1.0 units=km
new linecode.LCode_43 nphases=1 rmatrix=[0.378302] xmatrix=[1.307115] units=km
new line.line_43 bus1=bus_34.3 bus2=bus_36.3 linecode=LCode_43 length=1.0 units=km
new linecode.LCode_44 nphases=1 rmatrix=[0.882151] xmatrix=[1.337937] units=km
new line.line_44 bus1=bus_32.3 bus2=bus_36.3 linecode=LCode_44 length=1.0 units=km
new linecode.LCode_45 nphases=1 rmatrix=[0.558800] xmatrix=[1.242115] units=km
new line.line_45 bus1=bus_33.3 bus2=bus_35.3 linecode=LCode_45 length=1.0 units=km
new linecode.LCode_46 nphases=1 rmatrix=[0.348675] xmatrix=[1.242115] units=km
new line.line_46 bus1=bus_33.3 bus2=bus_36.3 linecode=LCode_46 length=1.0 units=km
new linecode.LCode_47 nphases=1 rmatrix=[0.703876] xmatrix=[1.414226] units=km
new line.line_47 bus1=bus_36.3 bus2=bus_38.3 linecode=LCode_47 length=1.0 units=km
new linecode.LCode_48 nphases=1 rmatrix=[1.194787] xmatrix=[1.376122] units=km
new line.line_48 bus1=bus_36.3 bus2=bus_39.3 linecode=LCode_48 length=1.0 units=km
new linecode.LCode_50 nphases=1 rmatrix=[0.643121] xmatrix=[1.307779] units=km
new line.line_50 bus1=bus_38.3 bus2=bus_39.3 linecode=LCode_50 length=1.0 units=km
new linecode.LCode_51 nphases=1 rmatrix=[0.798529] xmatrix=[1.288139] units=km
new line.line_51 bus1=bus_39.3 bus2=bus_40.3 linecode=LCode_51 length=1.0 units=km
new linecode.LCode_52 nphases=1 rmatrix=[0.946380] xmatrix=[1.289297] units=km
new line.line_52 bus1=bus_39.3 bus2=bus_41.3 linecode=LCode_52 length=1.0 units=km
new linecode.LCode_53 nphases=1 rmatrix=[1.243563] xmatrix=[1.242115] units=km
new line.line_53 bus1=bus_40.3 bus2=bus_41.3 linecode=LCode_53 length=1.0 units=km
new linecode.LCode_54 nphases=1 rmatrix=[1.556929] xmatrix=[1.242115] units=km
new line.line_54 bus1=bus_42.3 bus2=bus_43.3 linecode=LCode_54 length=1.0 units=km
new linecode.LCode_55 nphases=1 rmatrix=[0.261227] xmatrix=[1.242115] units=km
new line.line_55 bus1=bus_33.3 bus2=bus_42.3 linecode=LCode_55 length=1.0 units=km
new linecode.LCode_56 nphases=1 rmatrix=[1.852975] xmatrix=[1.242115] units=km
new line.line_56 bus1=bus_43.3 bus2=bus_44.3 linecode=LCode_56 length=1.0 units=km
new linecode.LCode_57 nphases=1 rmatrix=[0.820513] xmatrix=[1.852163] units=km
new line.line_57 bus1=bus_44.3 bus2=bus_45.3 linecode=LCode_57 length=1.0 units=km
new linecode.LCode_58 nphases=1 rmatrix=[0.758366] xmatrix=[1.242115] units=km
new line.line_58 bus1=bus_45.3 bus2=bus_46.3 linecode=LCode_58 length=1.0 units=km
new linecode.LCode_59 nphases=1 rmatrix=[0.904484] xmatrix=[1.242115] units=km
new line.line_59 bus1=bus_45.3 bus2=bus_47.3 linecode=LCode_59 length=1.0 units=km
new linecode.LCode_60 nphases=1 rmatrix=[1.096044] xmatrix=[1.242115] units=km
new line.line_60 bus1=bus_46.3 bus2=bus_48.3 linecode=LCode_60 length=1.0 units=km
new linecode.LCode_61 nphases=1 rmatrix=[0.187772] xmatrix=[1.359370] units=km
new line.line_61 bus1=bus_41.3 bus2=bus_48.3 linecode=LCode_61 length=1.0 units=km
new linecode.LCode_62 nphases=1 rmatrix=[0.290941] xmatrix=[1.369701] units=km
new line.line_62 bus1=bus_41.3 bus2=bus_48.3 linecode=LCode_62 length=1.0 units=km
new linecode.LCode_63 nphases=1 rmatrix=[0.578950] xmatrix=[1.242115] units=km
new line.line_63 bus1=bus_44.3 bus2=bus_48.3 linecode=LCode_63 length=1.0 units=km
new linecode.LCode_64 nphases=1 rmatrix=[1.264159] xmatrix=[1.242115] units=km
new line.line_64 bus1=bus_47.3 bus2=bus_48.3 linecode=LCode_64 length=1.0 units=km
new linecode.LCode_65 nphases=1 rmatrix=[1.084544] xmatrix=[1.242115] units=km
new line.line_65 bus1=bus_48.3 bus2=bus_49.3 linecode=LCode_65 length=1.0 units=km
new linecode.LCode_66 nphases=1 rmatrix=[0.269441] xmatrix=[1.313957] units=km
new line.line_66 bus1=bus_48.3 bus2=bus_50.3 linecode=LCode_66 length=1.0 units=km
new linecode.LCode_67 nphases=1 rmatrix=[0.912187] xmatrix=[1.484312] units=km
new line.line_67 bus1=bus_50.3 bus2=bus_51.3 linecode=LCode_67 length=1.0 units=km
new linecode.LCode_68 nphases=1 rmatrix=[0.569494] xmatrix=[1.242115] units=km
new line.line_68 bus1=bus_51.3 bus2=bus_52.3 linecode=LCode_68 length=1.0 units=km
new linecode.LCode_69 nphases=1 rmatrix=[0.554477] xmatrix=[1.418295] units=km
new line.line_69 bus1=bus_52.3 bus2=bus_53.3 linecode=LCode_69 length=1.0 units=km
new linecode.LCode_70 nphases=1 rmatrix=[0.763571] xmatrix=[1.242115] units=km
new line.line_70 bus1=bus_48.3 bus2=bus_53.3 linecode=LCode_70 length=1.0 units=km
new linecode.LCode_71 nphases=1 rmatrix=[0.391923] xmatrix=[1.272015] units=km
new line.line_71 bus1=bus_48.3 bus2=bus_53.3 linecode=LCode_71 length=1.0 units=km
new linecode.LCode_72 nphases=1 rmatrix=[0.272400] xmatrix=[1.389199] units=km
new line.line_72 bus1=bus_53.3 bus2=bus_54.3 linecode=LCode_72 length=1.0 units=km
new linecode.LCode_73 nphases=1 rmatrix=[0.476815] xmatrix=[1.242115] units=km
new line.line_73 bus1=bus_53.3 bus2=bus_55.3 linecode=LCode_73 length=1.0 units=km
new linecode.LCode_74 nphases=1 rmatrix=[0.826105] xmatrix=[1.242115] units=km
new line.line_74 bus1=bus_54.3 bus2=bus_55.3 linecode=LCode_74 length=1.0 units=km
new linecode.LCode_75 nphases=1 rmatrix=[0.263025] xmatrix=[1.412109] units=km
new line.line_75 bus1=bus_55.3 bus2=bus_56.3 linecode=LCode_75 length=1.0 units=km
new linecode.LCode_76 nphases=1 rmatrix=[0.938774] xmatrix=[1.242115] units=km
new line.line_76 bus1=bus_49.3 bus2=bus_56.3 linecode=LCode_76 length=1.0 units=km
new linecode.LCode_77 nphases=1 rmatrix=[1.370400] xmatrix=[1.242115] units=km
new line.line_77 bus1=bus_55.3 bus2=bus_57.3 linecode=LCode_77 length=1.0 units=km
new linecode.LCode_78 nphases=1 rmatrix=[0.335203] xmatrix=[1.242115] units=km
new line.line_78 bus1=bus_50.3 bus2=bus_57.3 linecode=LCode_78 length=1.0 units=km
new linecode.LCode_79 nphases=1 rmatrix=[0.631731] xmatrix=[1.356940] units=km
new line.line_79 bus1=bus_53.3 bus2=bus_58.3 linecode=LCode_79 length=1.0 units=km
new linecode.LCode_80 nphases=1 rmatrix=[0.721257] xmatrix=[1.330042] units=km
new line.line_80 bus1=bus_55.3 bus2=bus_58.3 linecode=LCode_80 length=1.0 units=km
new linecode.LCode_81 nphases=1 rmatrix=[0.839416] xmatrix=[1.242115] units=km
new line.line_81 bus1=bus_55.3 bus2=bus_58.3 linecode=LCode_81 length=1.0 units=km
new linecode.LCode_82 nphases=1 rmatrix=[0.767367] xmatrix=[1.542400] units=km
new line.line_82 bus1=bus_54.3 bus2=bus_58.3 linecode=LCode_82 length=1.0 units=km
new linecode.LCode_83 nphases=1 rmatrix=[0.590029] xmatrix=[1.477201] units=km
new line.line_83 bus1=bus_58.3 bus2=bus_59.3 linecode=LCode_83 length=1.0 units=km
new linecode.LCode_84 nphases=1 rmatrix=[0.695717] xmatrix=[1.242115] units=km
new line.line_84 bus1=bus_58.3 bus2=bus_60.3 linecode=LCode_84 length=1.0 units=km
new linecode.LCode_85 nphases=1 rmatrix=[0.567411] xmatrix=[1.557210] units=km
new line.line_85 bus1=bus_59.3 bus2=bus_60.3 linecode=LCode_85 length=1.0 units=km
new linecode.LCode_86 nphases=1 rmatrix=[0.572730] xmatrix=[1.329330] units=km
new line.line_86 bus1=bus_59.3 bus2=bus_61.3 linecode=LCode_86 length=1.0 units=km
new linecode.LCode_87 nphases=1 rmatrix=[1.002914] xmatrix=[1.255357] units=km
new line.line_87 bus1=bus_60.3 bus2=bus_61.3 linecode=LCode_87 length=1.0 units=km
new linecode.LCode_88 nphases=1 rmatrix=[0.640932] xmatrix=[1.474888] units=km
new line.line_88 bus1=bus_62.1 bus2=bus_63.1 linecode=LCode_88 length=1.0 units=km
new linecode.LCode_89 nphases=2 rmatrix=[0.839189 | 0.059160 0.839189] xmatrix=[1.251889 | 1.024695 1.251889] units=km
new line.line_89 bus1=bus_37.2.3 bus2=bus_64.2.3 linecode=LCode_89 length=1.0 units=km
new linecode.LCode_91 nphases=1 rmatrix=[0.700531] xmatrix=[1.242115] units=km
new line.line_91 bus1=bus_48.3 bus2=bus_65.3 linecode=LCode_91 length=1.0 units=km
new linecode.LCode_92 nphases=1 rmatrix=[0.618749] xmatrix=[1.246550] units=km
new line.line_92 bus1=bus_48.3 bus2=bus_65.3 linecode=LCode_92 length=1.0 units=km
new linecode.LCode_93 nphases=1 rmatrix=[0.690641] xmatrix=[1.320547] units=km
new line.line_93 bus1=bus_61.3 bus2=bus_65.3 linecode=LCode_93 length=1.0 units=km
new linecode.LCode_94 nphases=1 rmatrix=[0.684519] xmatrix=[1.452647] units=km
new line.line_94 bus1=bus_61.3 bus2=bus_66.3 linecode=LCode_94 length=1.0 units=km
new linecode.LCode_95 nphases=1 rmatrix=[0.213951] xmatrix=[1.272177] units=km
new line.line_95 bus1=bus_65.3 bus2=bus_66.3 linecode=LCode_95 length=1.0 units=km
new linecode.LCode_96 nphases=1 rmatrix=[0.724508] xmatrix=[1.274194] units=km
new line.line_96 bus1=bus_46.3 bus2=bus_68.3 linecode=LCode_96 length=1.0 units=km
new linecode.LCode_97 nphases=1 rmatrix=[0.251029] xmatrix=[1.491775] units=km
new line.line_97 bus1=bus_48.3 bus2=bus_68.3 linecode=LCode_97 length=1.0 units=km
new linecode.LCode_98 nphases=1 rmatrix=[0.262866] xmatrix=[1.426377] units=km
new line.line_98 bus1=bus_68.1 bus2=bus_69.1 linecode=LCode_98 length=1.0 units=km
new linecode.LCode_99 nphases=1 rmatrix=[0.579276] xmatrix=[1.278744] units=km
new line.line_99 bus1=bus_23.1 bus2=bus_69.1 linecode=LCode_99 length=1.0 units=km
new linecode.LCode_100 nphases=1 rmatrix=[0.232847] xmatrix=[1.339464] units=km
new line.line_100 bus1=bus_69.1 bus2=bus_70.1 linecode=LCode_100 length=1.0 units=km
new linecode.LCode_101 nphases=1 rmatrix=[0.639808] xmatrix=[1.351730] units=km
new line.line_101 bus1=bus_23.1 bus2=bus_71.1 linecode=LCode_101 length=1.0 units=km
new linecode.LCode_102 nphases=1 rmatrix=[0.808143] xmatrix=[1.346252] units=km
new line.line_102 bus1=bus_70.1 bus2=bus_71.1 linecode=LCode_102 length=1.0 units=km
new linecode.LCode_103 nphases=1 rmatrix=[0.834759] xmatrix=[1.295961] units=km
new line.line_103 bus1=bus_70.1 bus2=bus_72.1 linecode=LCode_103 length=1.0 units=km
new linecode.LCode_104 nphases=1 rmatrix=[0.520427] xmatrix=[1.265546] units=km
new line.line_104 bus1=bus_69.1 bus2=bus_73.1 linecode=LCode_104 length=1.0 units=km
new linecode.LCode_106 nphases=1 rmatrix=[0.321959] xmatrix=[1.242115] units=km
new line.line_106 bus1=bus_68.2 bus2=bus_74.2 linecode=LCode_106 length=1.0 units=km
new linecode.LCode_108 nphases=1 rmatrix=[0.723964] xmatrix=[1.248238] units=km
new line.line_108 bus1=bus_75.2 bus2=bus_76.2 linecode=LCode_108 length=1.0 units=km
new linecode.LCode_109 nphases=1 rmatrix=[1.285756] xmatrix=[1.305035] units=km
new line.line_109 bus1=bus_68.2 bus2=bus_76.2 linecode=LCode_109 length=1.0 units=km
new linecode.LCode_110 nphases=1 rmatrix=[0.555924] xmatrix=[1.273361] units=km
new line.line_110 bus1=bus_74.2 bus2=bus_76.2 linecode=LCode_110 length=1.0 units=km
new linecode.LCode_111 nphases=1 rmatrix=[1.024202] xmatrix=[1.242115] units=km
new line.line_111 bus1=bus_76.2 bus2=bus_77.2 linecode=LCode_111 length=1.0 units=km
new linecode.LCode_112 nphases=1 rmatrix=[0.830325] xmatrix=[1.658587] units=km
new line.line_112 bus1=bus_77.2 bus2=bus_78.2 linecode=LCode_112 length=1.0 units=km
new linecode.LCode_113 nphases=1 rmatrix=[0.603177] xmatrix=[1.710611] units=km
new line.line_113 bus1=bus_76.2 bus2=bus_79.2 linecode=LCode_113 length=1.0 units=km
new linecode.LCode_114 nphases=1 rmatrix=[0.884458] xmatrix=[1.498747] units=km
new line.line_114 bus1=bus_76.2 bus2=bus_79.2 linecode=LCode_114 length=1.0 units=km
new linecode.LCode_115 nphases=1 rmatrix=[0.792721] xmatrix=[1.328687] units=km
new line.line_115 bus1=bus_78.2 bus2=bus_79.2 linecode=LCode_115 length=1.0 units=km
new linecode.LCode_116 nphases=1 rmatrix=[0.942445] xmatrix=[1.368205] units=km
new line.line_116 bus1=bus_76.2 bus2=bus_81.2 linecode=LCode_116 length=1.0 units=km
new linecode.LCode_117 nphases=1 rmatrix=[0.604723] xmatrix=[1.255434] units=km
new line.line_117 bus1=bus_81.2 bus2=bus_82.2 linecode=LCode_117 length=1.0 units=km
new linecode.LCode_118 nphases=1 rmatrix=[1.446939] xmatrix=[1.242115] units=km
new line.line_118 bus1=bus_82.2 bus2=bus_83.2 linecode=LCode_118 length=1.0 units=km
new linecode.LCode_119 nphases=1 rmatrix=[0.711847] xmatrix=[1.302458] units=km
new line.line_119 bus1=bus_82.2 bus2=bus_84.2 linecode=LCode_119 length=1.0 units=km
new linecode.LCode_120 nphases=1 rmatrix=[0.790779] xmatrix=[1.242115] units=km
new line.line_120 bus1=bus_83.2 bus2=bus_84.2 linecode=LCode_120 length=1.0 units=km
new linecode.LCode_121 nphases=1 rmatrix=[0.339646] xmatrix=[1.399778] units=km
new line.line_121 bus1=bus_84.2 bus2=bus_85.2 linecode=LCode_121 length=1.0 units=km
new linecode.LCode_122 nphases=1 rmatrix=[0.839221] xmatrix=[1.333291] units=km
new line.line_122 bus1=bus_84.2 bus2=bus_87.2 linecode=LCode_122 length=1.0 units=km
new linecode.LCode_123 nphases=1 rmatrix=[0.779509] xmatrix=[1.242115] units=km
new line.line_123 bus1=bus_84.2 bus2=bus_88.2 linecode=LCode_123 length=1.0 units=km
new linecode.LCode_124 nphases=1 rmatrix=[1.025234] xmatrix=[1.242115] units=km
new line.line_124 bus1=bus_87.2 bus2=bus_88.2 linecode=LCode_124 length=1.0 units=km
new linecode.LCode_125 nphases=1 rmatrix=[0.885436] xmatrix=[1.376411] units=km
new line.line_125 bus1=bus_88.2 bus2=bus_89.2 linecode=LCode_125 length=1.0 units=km
new linecode.LCode_126 nphases=1 rmatrix=[0.613365] xmatrix=[1.350902] units=km
new line.line_126 bus1=bus_88.2 bus2=bus_89.2 linecode=LCode_126 length=1.0 units=km
new linecode.LCode_127 nphases=1 rmatrix=[0.701839] xmatrix=[1.455070] units=km
new line.line_127 bus1=bus_89.2 bus2=bus_90.2 linecode=LCode_127 length=1.0 units=km
new linecode.LCode_128 nphases=1 rmatrix=[0.762753] xmatrix=[1.337581] units=km
new line.line_128 bus1=bus_88.2 bus2=bus_91.2 linecode=LCode_128 length=1.0 units=km
new linecode.LCode_129 nphases=1 rmatrix=[1.010335] xmatrix=[1.496270] units=km
new line.line_129 bus1=bus_88.2 bus2=bus_91.2 linecode=LCode_129 length=1.0 units=km
new linecode.LCode_130 nphases=1 rmatrix=[1.089127] xmatrix=[1.249833] units=km
new line.line_130 bus1=bus_90.2 bus2=bus_91.2 linecode=LCode_130 length=1.0 units=km
new linecode.LCode_131 nphases=1 rmatrix=[0.707468] xmatrix=[1.287675] units=km
new line.line_131 bus1=bus_91.2 bus2=bus_92.2 linecode=LCode_131 length=1.0 units=km
new linecode.LCode_132 nphases=1 rmatrix=[0.811522] xmatrix=[1.287342] units=km
new line.line_132 bus1=bus_91.2 bus2=bus_93.2 linecode=LCode_132 length=1.0 units=km
new linecode.LCode_133 nphases=1 rmatrix=[0.668152] xmatrix=[1.460676] units=km
new line.line_133 bus1=bus_92.2 bus2=bus_93.2 linecode=LCode_133 length=1.0 units=km
new linecode.LCode_134 nphases=1 rmatrix=[0.719762] xmatrix=[1.353810] units=km
new line.line_134 bus1=bus_93.2 bus2=bus_94.2 linecode=LCode_134 length=1.0 units=km
new linecode.LCode_135 nphases=1 rmatrix=[0.810122] xmatrix=[1.242115] units=km
new line.line_135 bus1=bus_79.2 bus2=bus_95.2 linecode=LCode_135 length=1.0 units=km
new linecode.LCode_136 nphases=1 rmatrix=[0.582602] xmatrix=[1.242115] units=km
new line.line_136 bus1=bus_81.2 bus2=bus_95.2 linecode=LCode_136 length=1.0 units=km
new linecode.LCode_137 nphases=1 rmatrix=[0.212614] xmatrix=[1.293598] units=km
new line.line_137 bus1=bus_93.2 bus2=bus_95.2 linecode=LCode_137 length=1.0 units=km
new linecode.LCode_138 nphases=1 rmatrix=[0.820087] xmatrix=[1.297788] units=km
new line.line_138 bus1=bus_79.2 bus2=bus_96.2 linecode=LCode_138 length=1.0 units=km
new linecode.LCode_139 nphases=1 rmatrix=[0.283422] xmatrix=[1.360694] units=km
new line.line_139 bus1=bus_79.2 bus2=bus_97.2 linecode=LCode_139 length=1.0 units=km
new linecode.LCode_140 nphases=1 rmatrix=[0.218131] xmatrix=[1.322020] units=km
new line.line_140 bus1=bus_79.2 bus2=bus_98.2 linecode=LCode_140 length=1.0 units=km
new linecode.LCode_141 nphases=1 rmatrix=[0.665276] xmatrix=[1.627311] units=km
new line.line_141 bus1=bus_91.2 bus2=bus_99.2 linecode=LCode_141 length=1.0 units=km
new linecode.LCode_142 nphases=1 rmatrix=[0.766868] xmatrix=[1.262826] units=km
new line.line_142 bus1=bus_93.2 bus2=bus_99.2 linecode=LCode_142 length=1.0 units=km
new linecode.LCode_143 nphases=1 rmatrix=[1.084281] xmatrix=[1.448054] units=km
new line.line_143 bus1=bus_94.2 bus2=bus_95.2 linecode=LCode_143 length=1.0 units=km
new linecode.LCode_144 nphases=1 rmatrix=[0.626361] xmatrix=[1.242115] units=km
new line.line_144 bus1=bus_95.2 bus2=bus_96.2 linecode=LCode_144 length=1.0 units=km
new linecode.LCode_145 nphases=1 rmatrix=[0.868980] xmatrix=[1.259828] units=km
new line.line_145 bus1=bus_97.2 bus2=bus_99.2 linecode=LCode_145 length=1.0 units=km
new linecode.LCode_146 nphases=1 rmatrix=[1.047656] xmatrix=[1.242115] units=km
new line.line_146 bus1=bus_98.2 bus2=bus_99.2 linecode=LCode_146 length=1.0 units=km
new linecode.LCode_147 nphases=1 rmatrix=[0.950295] xmatrix=[1.242115] units=km
new line.line_147 bus1=bus_99.2 bus2=bus_100.2 linecode=LCode_147 length=1.0 units=km
new linecode.LCode_148 nphases=1 rmatrix=[0.317831] xmatrix=[1.242115] units=km
new line.line_148 bus1=bus_91.2 bus2=bus_101.2 linecode=LCode_148 length=1.0 units=km
new linecode.LCode_149 nphases=1 rmatrix=[0.944260] xmatrix=[1.242115] units=km
new line.line_149 bus1=bus_100.2 bus2=bus_101.2 linecode=LCode_149 length=1.0 units=km
new linecode.LCode_150 nphases=1 rmatrix=[0.879232] xmatrix=[1.245741] units=km
new line.line_150 bus1=bus_99.2 bus2=bus_102.2 linecode=LCode_150 length=1.0 units=km
new linecode.LCode_151 nphases=1 rmatrix=[0.662993] xmatrix=[1.379352] units=km
new line.line_151 bus1=bus_99.2 bus2=bus_103.2 linecode=LCode_151 length=1.0 units=km
new linecode.LCode_152 nphases=1 rmatrix=[0.980771] xmatrix=[1.373905] units=km
new line.line_152 bus1=bus_102.2 bus2=bus_103.2 linecode=LCode_152 length=1.0 units=km
new linecode.LCode_153 nphases=1 rmatrix=[0.240555] xmatrix=[1.358581] units=km
new line.line_153 bus1=bus_102.2 bus2=bus_104.2 linecode=LCode_153 length=1.0 units=km
new linecode.LCode_154 nphases=1 rmatrix=[0.704165] xmatrix=[1.242115] units=km
new line.line_154 bus1=bus_99.2 bus2=bus_105.2 linecode=LCode_154 length=1.0 units=km
new linecode.LCode_155 nphases=1 rmatrix=[0.648617] xmatrix=[1.294624] units=km
new line.line_155 bus1=bus_103.2 bus2=bus_104.2 linecode=LCode_155 length=1.0 units=km
new linecode.LCode_156 nphases=1 rmatrix=[0.548173] xmatrix=[1.351414] units=km
new line.line_156 bus1=bus_104.2 bus2=bus_105.2 linecode=LCode_156 length=1.0 units=km
new linecode.LCode_157 nphases=1 rmatrix=[0.749697] xmatrix=[1.242115] units=km
new line.line_157 bus1=bus_104.2 bus2=bus_106.2 linecode=LCode_157 length=1.0 units=km
new linecode.LCode_158 nphases=1 rmatrix=[0.898858] xmatrix=[1.274267] units=km
new line.line_158 bus1=bus_104.2 bus2=bus_107.2 linecode=LCode_158 length=1.0 units=km
new linecode.LCode_159 nphases=1 rmatrix=[0.792393] xmatrix=[1.242115] units=km
new line.line_159 bus1=bus_105.2 bus2=bus_106.2 linecode=LCode_159 length=1.0 units=km
new linecode.LCode_160 nphases=1 rmatrix=[0.837165] xmatrix=[1.393585] units=km
new line.line_160 bus1=bus_107.2 bus2=bus_108.2 linecode=LCode_160 length=1.0 units=km
new linecode.LCode_161 nphases=1 rmatrix=[0.599375] xmatrix=[1.242115] units=km
new line.line_161 bus1=bus_102.2 bus2=bus_109.2 linecode=LCode_161 length=1.0 units=km
new linecode.LCode_162 nphases=1 rmatrix=[0.852246] xmatrix=[1.275301] units=km
new line.line_162 bus1=bus_108.2 bus2=bus_109.2 linecode=LCode_162 length=1.0 units=km
new linecode.LCode_163 nphases=1 rmatrix=[0.599313] xmatrix=[1.304539] units=km
new line.line_163 bus1=bus_109.2 bus2=bus_110.2 linecode=LCode_163 length=1.0 units=km
new linecode.LCode_164 nphases=1 rmatrix=[0.511219] xmatrix=[1.528538] units=km
new line.line_164 bus1=bus_109.2 bus2=bus_111.2 linecode=LCode_164 length=1.0 units=km
new linecode.LCode_165 nphases=1 rmatrix=[0.776200] xmatrix=[1.296760] units=km
new line.line_165 bus1=bus_16.1 bus2=bus_112.1 linecode=LCode_165 length=1.0 units=km
new linecode.LCode_166 nphases=1 rmatrix=[0.875819] xmatrix=[1.247189] units=km
new line.line_166 bus1=bus_31.1 bus2=bus_112.1 linecode=LCode_166 length=1.0 units=km
new linecode.LCode_167 nphases=1 rmatrix=[0.583923] xmatrix=[1.242115] units=km
new line.line_167 bus1=bus_31.1 bus2=bus_113.1 linecode=LCode_167 length=1.0 units=km
new linecode.LCode_168 nphases=1 rmatrix=[0.227236] xmatrix=[1.302558] units=km
new line.line_168 bus1=bus_26.1 bus2=bus_114.1 linecode=LCode_168 length=1.0 units=km
new linecode.LCode_169 nphases=1 rmatrix=[0.587422] xmatrix=[1.396317] units=km
new line.line_169 bus1=bus_113.1 bus2=bus_114.1 linecode=LCode_169 length=1.0 units=km
new linecode.LCode_170 nphases=1 rmatrix=[0.589177] xmatrix=[1.242115] units=km
new line.line_170 bus1=bus_11.1 bus2=bus_116.1 linecode=LCode_170 length=1.0 units=km
new linecode.LCode_171 nphases=1 rmatrix=[0.247318] xmatrix=[1.242115] units=km
new line.line_171 bus1=bus_74.2 bus2=bus_117.2 linecode=LCode_171 length=1.0 units=km
new linecode.LCode_172 nphases=1 rmatrix=[0.870893] xmatrix=[1.266447] units=km
new line.line_172 bus1=bus_75.2 bus2=bus_117.2 linecode=LCode_172 length=1.0 units=km

!---------------- LOADS ----------------

new load.load_0_A bus1=bus_0.1 Phases=1 kv=157.6864406779661 kw=1912.6728645894184 kvar=627.3566995853292 vminpu=0.85
new load.load_1_A bus1=bus_1.1 Phases=1 kv=157.6864406779661 kw=1689.09017203007 kvar=554.021576425863 vminpu=0.85
new load.load_2_A bus1=bus_2.1 Phases=1 kv=157.6864406779661 kw=2531.70424326366 kvar=830.3989917904805 vminpu=0.85
new load.load_3_A bus1=bus_3.1 Phases=1 kv=157.6864406779661 kw=2275.062866810231 kvar=746.2206203137557 vminpu=0.85
new load.load_4_A bus1=bus_4.1 Phases=1 kv=157.6864406779661 kw=1586.8391877867152 kvar=520.4832535940426 vminpu=0.85
new load.load_5_A bus1=bus_5.1 Phases=1 kv=157.6864406779661 kw=2228.0776978359145 kvar=730.80948489018 vminpu=0.85
new load.load_6_A bus1=bus_6.1 Phases=1 kv=157.6864406779661 kw=2494.4350321908 kvar=818.1746905585825 vminpu=0.85
new load.load_7_A bus1=bus_7.1 Phases=1 kv=157.6864406779661 kw=2256.31144482141 kvar=740.0701539014225 vminpu=0.85
new load.load_8_A bus1=bus_8.1 Phases=1 kv=157.6864406779661 kw=2161.3813166399577 kvar=708.9330718579062 vminpu=0.85
new load.load_9_A bus1=bus_9.1 Phases=1 kv=157.6864406779661 kw=2655.8433198827056 kvar=871.1166089215275 vminpu=0.85
new load.load_10_A bus1=bus_10.1 Phases=1 kv=157.6864406779661 kw=2544.660000064349 kvar=834.6484800211065 vminpu=0.85
new load.load_11_A bus1=bus_11.1 Phases=1 kv=157.6864406779661 kw=2103.833343119842 kvar=690.0573365433082 vminpu=0.85
new load.load_12_C bus1=bus_12.3 Phases=1 kv=157.6864406779661 kw=2244.46219842839 kvar=736.1836010845119 vminpu=0.85
new load.load_13_C bus1=bus_13.3 Phases=1 kv=157.6864406779661 kw=2164.7017781378777 kvar=710.0221832292239 vminpu=0.85
new load.load_14_C bus1=bus_14.3 Phases=1 kv=157.6864406779661 kw=1695.4903273835398 kvar=556.1208273818011 vminpu=0.85
new load.load_15_A bus1=bus_15.1 Phases=1 kv=157.6864406779661 kw=1341.777116918052 kvar=440.102894349121 vminpu=0.85
new load.load_16_A bus1=bus_16.1 Phases=1 kv=157.6864406779661 kw=2284.948883788339 kvar=749.4632338825753 vminpu=0.85
new load.load_17_A bus1=bus_17.1 Phases=1 kv=157.6864406779661 kw=2076.155997293252 kvar=680.9791671121866 vminpu=0.85
new load.load_18_C bus1=bus_18.3 Phases=1 kv=157.6864406779661 kw=2037.67738591331 kvar=668.3581825795657 vminpu=0.85
new load.load_19_A bus1=bus_19.1 Phases=1 kv=157.6864406779661 kw=2191.9039567563127 kvar=718.9444978160706 vminpu=0.85
new load.load_20_A bus1=bus_20.1 Phases=1 kv=157.6864406779661 kw=2526.65757106584 kvar=828.7436833095956 vminpu=0.85
new load.load_21_A bus1=bus_21.1 Phases=1 kv=157.6864406779661 kw=2219.781172702052 kvar=728.0882246462731 vminpu=0.85
new load.load_22_A bus1=bus_22.1 Phases=1 kv=157.6864406779661 kw=2305.7109852030017 kvar=756.2732031465846 vminpu=0.85
new load.load_23_A bus1=bus_23.1 Phases=1 kv=157.6864406779661 kw=1235.312240084492 kvar=405.1824147477134 vminpu=0.85
new load.load_24_A bus1=bus_24.1 Phases=1 kv=157.6864406779661 kw=2122.746669298425 kvar=696.2609075298834 vminpu=0.85
new load.load_25_A bus1=bus_25.1 Phases=1 kv=157.6864406779661 kw=1743.1218762481474 kvar=571.7439754093923 vminpu=0.85
new load.load_26_A bus1=bus_26.1 Phases=1 kv=157.6864406779661 kw=2700.000224624549 kvar=885.6000736768522 vminpu=0.85
new load.load_27_A bus1=bus_27.1 Phases=1 kv=157.6864406779661 kw=1660.8780014993763 kvar=544.7679844917955 vminpu=0.85
new load.load_28_A bus1=bus_28.1 Phases=1 kv=157.6864406779661 kw=2048.370047443606 kvar=671.8653755615028 vminpu=0.85
new load.load_29_A bus1=bus_29.1 Phases=1 kv=157.6864406779661 kw=1363.7302662390134 kvar=447.3035273263964 vminpu=0.85
new load.load_30_A bus1=bus_30.1 Phases=1 kv=157.6864406779661 kw=1860.9213859147064 kvar=610.3822145800237 vminpu=0.85
new load.load_31_A bus1=bus_31.1 Phases=1 kv=157.6864406779661 kw=2581.105798295493 kvar=846.6027018409218 vminpu=0.85
new load.load_32_C bus1=bus_32.3 Phases=1 kv=157.6864406779661 kw=2589.869774356271 kvar=849.4772859888569 vminpu=0.85
new load.load_33_C bus1=bus_33.3 Phases=1 kv=157.6864406779661 kw=2336.732424095925 kvar=766.4482351034635 vminpu=0.85
new load.load_34_C bus1=bus_34.3 Phases=1 kv=157.6864406779661 kw=1443.3855206283365 kvar=473.4304507660944 vminpu=0.85
new load.load_35_C bus1=bus_35.3 Phases=1 kv=157.6864406779661 kw=2565.104498123385 kvar=841.3542753844703 vminpu=0.85
new load.load_36_C bus1=bus_36.3 Phases=1 kv=157.6864406779661 kw=2746.3905859458214 kvar=900.8161121902294 vminpu=0.85
new load.load_37_B bus1=bus_37.2 Phases=1 kv=157.6864406779661 kw=1687.8210949448012 kvar=553.6053191418948 vminpu=0.85
new load.load_37_C bus1=bus_37.3 Phases=1 kv=157.6864406779661 kw=1340.599569537448 kvar=439.71665880828294 vminpu=0.85
new load.load_38_C bus1=bus_38.3 Phases=1 kv=157.6864406779661 kw=1858.0154728212683 kvar=609.429075085376 vminpu=0.85
new load.load_39_C bus1=bus_39.3 Phases=1 kv=157.6864406779661 kw=1848.970425630431 kvar=606.4622996067814 vminpu=0.85
new load.load_40_C bus1=bus_40.3 Phases=1 kv=157.6864406779661 kw=1959.363093354399 kvar=642.6710946202429 vminpu=0.85
new load.load_41_C bus1=bus_41.3 Phases=1 kv=157.6864406779661 kw=2285.976675310711 kvar=749.8003495019133 vminpu=0.85
new load.load_42_C bus1=bus_42.3 Phases=1 kv=157.6864406779661 kw=2354.138931403936 kvar=772.157569500491 vminpu=0.85
new load.load_43_C bus1=bus_43.3 Phases=1 kv=157.6864406779661 kw=1722.207250072691 kvar=564.8839780238427 vminpu=0.85
new load.load_44_C bus1=bus_44.3 Phases=1 kv=157.6864406779661 kw=2174.934780671961 kvar=713.3786080604033 vminpu=0.85
new load.load_45_C bus1=bus_45.3 Phases=1 kv=157.6864406779661 kw=1601.2129511815876 kvar=525.1978479875607 vminpu=0.85
new load.load_46_C bus1=bus_46.3 Phases=1 kv=157.6864406779661 kw=2323.131667151572 kvar=761.9871868257156 vminpu=0.85
new load.load_47_C bus1=bus_47.3 Phases=1 kv=157.6864406779661 kw=2435.602508011165 kvar=798.8776226276622 vminpu=0.85
new load.load_48_C bus1=bus_48.3 Phases=1 kv=157.6864406779661 kw=2206.1161182670808 kvar=723.6060867916025 vminpu=0.85
new load.load_49_C bus1=bus_49.3 Phases=1 kv=157.6864406779661 kw=1509.0949542649823 kvar=494.9831449989142 vminpu=0.85
new load.load_50_C bus1=bus_50.3 Phases=1 kv=157.6864406779661 kw=2396.500934611232 kvar=786.0523065524841 vminpu=0.85
new load.load_51_C bus1=bus_51.3 Phases=1 kv=157.6864406779661 kw=1496.7993711082952 kvar=490.95019372352084 vminpu=0.85
new load.load_52_C bus1=bus_52.3 Phases=1 kv=157.6864406779661 kw=1946.3986108542829 kvar=638.4187443602048 vminpu=0.85
new load.load_53_C bus1=bus_53.3 Phases=1 kv=157.6864406779661 kw=2236.52479499582 kvar=733.5801327586289 vminpu=0.85
new load.load_54_C bus1=bus_54.3 Phases=1 kv=157.6864406779661 kw=2057.4672250030494 kvar=674.8492498010003 vminpu=0.85
new load.load_55_C bus1=bus_55.3 Phases=1 kv=157.6864406779661 kw=2236.6486617155824 kvar=733.620761042711 vminpu=0.85
new load.load_56_C bus1=bus_56.3 Phases=1 kv=157.6864406779661 kw=2160.948793005004 kvar=708.7912041056413 vminpu=0.85
new load.load_57_C bus1=bus_57.3 Phases=1 kv=157.6864406779661 kw=2112.841373709237 kvar=693.0119705766298 vminpu=0.85
new load.load_58_C bus1=bus_58.3 Phases=1 kv=157.6864406779661 kw=2118.700036456369 kvar=694.9336119576891 vminpu=0.85
new load.load_59_C bus1=bus_59.3 Phases=1 kv=157.6864406779661 kw=2077.892832626696 kvar=681.5488491015564 vminpu=0.85
new load.load_60_C bus1=bus_60.3 Phases=1 kv=157.6864406779661 kw=2083.3694741676177 kvar=683.3451875269786 vminpu=0.85
new load.load_61_C bus1=bus_61.3 Phases=1 kv=157.6864406779661 kw=1919.827397384744 kvar=629.703386342196 vminpu=0.85
new load.load_62_A bus1=bus_62.1 Phases=1 kv=157.6864406779661 kw=2071.414742026203 kvar=679.4240353845946 vminpu=0.85
new load.load_63_A bus1=bus_63.1 Phases=1 kv=157.6864406779661 kw=2290.8690064212888 kvar=751.4050341061827 vminpu=0.85
new load.load_64_B bus1=bus_64.2 Phases=1 kv=157.6864406779661 kw=1161.579543855258 kvar=380.99809038452463 vminpu=0.85
new load.load_64_C bus1=bus_64.3 Phases=1 kv=157.6864406779661 kw=1097.8999907814025 kvar=360.11119697630005 vminpu=0.85
new load.load_65_C bus1=bus_65.3 Phases=1 kv=157.6864406779661 kw=1736.113197867691 kvar=569.4451289006026 vminpu=0.85
new load.load_66_C bus1=bus_66.3 Phases=1 kv=157.6864406779661 kw=2027.6806152095403 kvar=665.0792417887293 vminpu=0.85
new load.load_67_B bus1=bus_67.2 Phases=1 kv=157.6864406779661 kw=1165.654060355998 kvar=382.33453179676735 vminpu=0.85
new load.load_67_C bus1=bus_67.3 Phases=1 kv=157.6864406779661 kw=891.9115724745922 kvar=292.5469957716662 vminpu=0.85
new load.load_69_A bus1=bus_69.1 Phases=1 kv=157.6864406779661 kw=2726.863016638508 kvar=894.4110694574306 vminpu=0.85
new load.load_70_A bus1=bus_70.1 Phases=1 kv=157.6864406779661 kw=1663.9037158880506 kvar=545.7604188112806 vminpu=0.85
new load.load_71_A bus1=bus_71.1 Phases=1 kv=157.6864406779661 kw=2585.9541719091044 kvar=848.1929683861863 vminpu=0.85
new load.load_72_A bus1=bus_72.1 Phases=1 kv=157.6864406779661 kw=1458.7771429202464 kvar=478.4789028778408 vminpu=0.85
new load.load_73_A bus1=bus_73.1 Phases=1 kv=157.6864406779661 kw=1843.8518047115929 kvar=604.7833919454025 vminpu=0.85
new load.load_74_B bus1=bus_74.2 Phases=1 kv=157.6864406779661 kw=1395.926046907969 kvar=457.86374338581385 vminpu=0.85
new load.load_75_B bus1=bus_75.2 Phases=1 kv=157.6864406779661 kw=1985.407484389101 kvar=651.2136548796252 vminpu=0.85
new load.load_76_B bus1=bus_76.2 Phases=1 kv=157.6864406779661 kw=2613.622185856368 kvar=857.2680769608887 vminpu=0.85
new load.load_77_B bus1=bus_77.2 Phases=1 kv=157.6864406779661 kw=1508.266949447556 kvar=494.7115594187984 vminpu=0.85
new load.load_78_B bus1=bus_78.2 Phases=1 kv=157.6864406779661 kw=1592.3804410764037 kvar=522.3007846730604 vminpu=0.85
new load.load_79_B bus1=bus_79.2 Phases=1 kv=157.6864406779661 kw=2199.267460632616 kvar=721.3597270874981 vminpu=0.85
new load.load_80_B bus1=bus_80.2 Phases=1 kv=157.6864406779661 kw=61.80074763510359 kvar=20.270645224313977 vminpu=0.85
new load.load_80_C bus1=bus_80.3 Phases=1 kv=157.6864406779661 kw=1664.247764152087 kvar=545.8732666418846 vminpu=0.85
new load.load_81_B bus1=bus_81.2 Phases=1 kv=157.6864406779661 kw=1874.88428548942 kvar=614.9620456405298 vminpu=0.85
new load.load_82_B bus1=bus_82.2 Phases=1 kv=157.6864406779661 kw=1732.3432672457825 kvar=568.2085916566167 vminpu=0.85
new load.load_83_B bus1=bus_83.2 Phases=1 kv=157.6864406779661 kw=1134.9115030648627 kvar=372.250973005275 vminpu=0.85
new load.load_84_B bus1=bus_84.2 Phases=1 kv=157.6864406779661 kw=1892.945215544971 kvar=620.8860306987505 vminpu=0.85
new load.load_85_B bus1=bus_85.2 Phases=1 kv=157.6864406779661 kw=1912.4811299950989 kvar=627.2938106383924 vminpu=0.85
new load.load_86_B bus1=bus_86.2 Phases=1 kv=157.6864406779661 kw=2169.488384320873 kvar=711.5921900572464 vminpu=0.85
new load.load_87_B bus1=bus_87.2 Phases=1 kv=157.6864406779661 kw=2097.364354976121 kvar=687.9355084321677 vminpu=0.85
new load.load_88_B bus1=bus_88.2 Phases=1 kv=157.6864406779661 kw=2325.6926188868 kvar=762.8271789948705 vminpu=0.85
new load.load_89_B bus1=bus_89.2 Phases=1 kv=157.6864406779661 kw=2279.8968506616666 kvar=747.8061670170267 vminpu=0.85
new load.load_90_B bus1=bus_90.2 Phases=1 kv=157.6864406779661 kw=2728.333723419426 kvar=894.8934612815717 vminpu=0.85
new load.load_91_B bus1=bus_91.2 Phases=1 kv=157.6864406779661 kw=2182.042067904861 kvar=715.7097982727945 vminpu=0.85
new load.load_92_B bus1=bus_92.2 Phases=1 kv=157.6864406779661 kw=2156.479465979867 kvar=707.3252648413965 vminpu=0.85
new load.load_93_B bus1=bus_93.2 Phases=1 kv=157.6864406779661 kw=2609.9881104227075 kvar=856.0761002186481 vminpu=0.85
new load.load_94_B bus1=bus_94.2 Phases=1 kv=157.6864406779661 kw=1762.023517120518 kvar=577.9437136155299 vminpu=0.85
new load.load_95_B bus1=bus_95.2 Phases=1 kv=157.6864406779661 kw=1694.4398492566347 kvar=555.7762705561762 vminpu=0.85
new load.load_96_B bus1=bus_96.2 Phases=1 kv=157.6864406779661 kw=2047.524386139866 kvar=671.5879986538761 vminpu=0.85
new load.load_97_B bus1=bus_97.2 Phases=1 kv=157.6864406779661 kw=1622.3194602313772 kvar=532.1207829558917 vminpu=0.85
new load.load_98_B bus1=bus_98.2 Phases=1 kv=157.6864406779661 kw=2289.9769620502584 kvar=751.1124435524848 vminpu=0.85
new load.load_99_B bus1=bus_99.2 Phases=1 kv=157.6864406779661 kw=2098.325361109269 kvar=688.2507184438404 vminpu=0.85
new load.load_100_B bus1=bus_100.2 Phases=1 kv=157.6864406779661 kw=2010.8647945764933 kvar=659.5636526210898 vminpu=0.85
new load.load_101_B bus1=bus_101.2 Phases=1 kv=157.6864406779661 kw=2260.432118028242 kvar=741.4217347132634 vminpu=0.85
new load.load_102_B bus1=bus_102.2 Phases=1 kv=157.6864406779661 kw=1879.3823047050744 kvar=616.4373959432644 vminpu=0.85
new load.load_103_B bus1=bus_103.2 Phases=1 kv=157.6864406779661 kw=1367.1096733680486 kvar=448.4119728647199 vminpu=0.85
new load.load_104_B bus1=bus_104.2 Phases=1 kv=157.6864406779661 kw=1664.3016899694492 kvar=545.8909543099794 vminpu=0.85
new load.load_105_B bus1=bus_105.2 Phases=1 kv=157.6864406779661 kw=1831.8964059073512 kvar=600.8620211376112 vminpu=0.85
new load.load_106_B bus1=bus_106.2 Phases=1 kv=157.6864406779661 kw=2149.5655903894326 kvar=705.0575136477339 vminpu=0.85
new load.load_107_B bus1=bus_107.2 Phases=1 kv=157.6864406779661 kw=1971.427713434388 kvar=646.6282900064792 vminpu=0.85
new load.load_108_B bus1=bus_108.2 Phases=1 kv=157.6864406779661 kw=2824.4404955663967 kvar=926.4164825457782 vminpu=0.85
new load.load_109_B bus1=bus_109.2 Phases=1 kv=157.6864406779661 kw=1569.6794593630975 kvar=514.854862671096 vminpu=0.85
new load.load_110_B bus1=bus_110.2 Phases=1 kv=157.6864406779661 kw=1827.668247810594 kvar=599.4751852818748 vminpu=0.85
new load.load_111_B bus1=bus_111.2 Phases=1 kv=157.6864406779661 kw=2377.33871283316 kvar=779.7670978092766 vminpu=0.85
new load.load_112_A bus1=bus_112.1 Phases=1 kv=157.6864406779661 kw=2453.587102416646 kvar=804.7765695926598 vminpu=0.85
new load.load_113_A bus1=bus_113.1 Phases=1 kv=157.6864406779661 kw=2306.7345334280576 kvar=756.6089269644029 vminpu=0.85
new load.load_114_A bus1=bus_114.1 Phases=1 kv=157.6864406779661 kw=2194.61070513065 kvar=719.8323112828532 vminpu=0.85
new load.load_115_A bus1=bus_115.1 Phases=1 kv=157.6864406779661 kw=1579.484902615112 kvar=518.0710480577568 vminpu=0.85
new load.load_116_A bus1=bus_116.1 Phases=1 kv=157.6864406779661 kw=1939.4121082780748 kvar=636.1271715152086 vminpu=0.85
new load.load_117_B bus1=bus_117.2 Phases=1 kv=157.6864406779661 kw=2557.270222357536 kvar=838.7846329332718 vminpu=0.85

!---------------- SOLUTION ----------------

set controlmode=off
Set Voltagebases=[157.6864406779661]
calcv
Solve